166
Coordinates from ORCA-job frame10
  Li  1.39209700000000     -0.07143000000000     -1.44926300000000
  C   -1.63770000000000      3.88990100000000     -0.77116300000000
  C   -3.23804000000000      0.42165100000000     -2.74608500000000
  C   -1.32302900000000      0.98935500000000      2.01722200000000
  C   -2.19925100000000      5.02647000000000     -1.58913100000000
  C   -3.93731300000000     -0.87224200000000     -3.08216300000000
  C   -1.88650000000000      1.82017500000000      3.14031800000000
  H   -2.02877200000000      3.88108500000000      0.25068500000000
  H   -0.54250900000000      3.91706200000000     -0.74075100000000
  H   -3.91657000000000      1.20172000000000     -2.39237900000000
  H   -2.64623100000000      0.79455400000000     -3.58323100000000
  H   -1.42229500000000     -0.07903700000000      2.19104900000000
  H   -0.27255000000000      1.18974800000000      1.79858300000000
  H   -1.92608100000000      5.98227400000000     -1.13100200000000
  H   -3.28932100000000      4.96221000000000     -1.63758900000000
  H   -1.79919500000000      5.00127700000000     -2.60599600000000
  H   -4.59295200000000     -1.19034500000000     -2.26719300000000
  H   -4.53864400000000     -0.74418000000000     -3.98868100000000
  H   -3.20041800000000     -1.65600700000000     -3.26559200000000
  H   -2.94497200000000      1.59433200000000      3.29582100000000
  H   -1.33984900000000      1.58206300000000      4.05771700000000
  H   -1.78511100000000      2.88955600000000      2.93571400000000
  O   -2.04995500000000      2.63558800000000     -1.42181500000000
  O   -2.30306700000000      0.08021200000000     -1.64519500000000
  O   -2.12314300000000      1.32918200000000      0.80386700000000
  O   0.09928100000000      1.09629600000000     -0.75442100000000
  P   -1.47714100000000      1.19884500000000     -0.73145600000000
  C   -0.15924400000000      2.42563700000000     -7.51866000000000
  C   -0.76846700000000     -1.77712300000000     -5.83067100000000
  C   -3.76099600000000      2.34139200000000     -5.56461800000000
  C   1.30463300000000      2.59328000000000     -7.84325300000000
  C   -0.34445400000000     -2.35802600000000     -4.50537100000000
  C   -3.74955500000000      3.54597900000000     -4.65257300000000
  H   -0.79761300000000      2.54850300000000     -8.39988000000000
  H   -0.48480700000000      3.11056800000000     -6.73085400000000
  H   -1.32142200000000     -2.48827600000000     -6.44953500000000
  H   0.08631600000000     -1.38095000000000     -6.38452600000000
  H   -4.04656200000000      2.58490100000000     -6.59157500000000
  H   -4.42540900000000      1.55255900000000     -5.19659800000000
  H   1.60802700000000      1.89294600000000     -8.62677600000000
  H   1.92809100000000      2.43905700000000     -6.95644800000000
  H   1.47835700000000      3.61032400000000     -8.21060200000000
  H   -1.18994700000000     -2.73042400000000     -3.92346400000000
  H   0.18003400000000     -1.60409800000000     -3.91401700000000
  H   0.34858000000000     -3.18922100000000     -4.67874400000000
  H   -3.07547600000000      4.31315400000000     -5.04472700000000
  H   -4.75472700000000      3.97252900000000     -4.57661100000000
  H   -3.40725700000000      3.26458600000000     -3.65218500000000
  O   -0.34955500000000      1.04498000000000     -7.01203200000000
  O   -1.68314200000000     -0.65145700000000     -5.52418600000000
  O   -2.38307900000000      1.82852000000000     -5.56518100000000
  O   -2.93012700000000      0.36222900000000     -7.82915200000000
  P   -1.93791700000000      0.58730700000000     -6.62608400000000
  C   8.73621800000000      5.47647800000000     -0.38068700000000
  C   4.65147800000000      3.94305400000000     -1.36920600000000
  C   7.31957700000000      1.69502400000000      1.03407200000000
  C   8.85204600000000      6.95650800000000     -0.65679000000000
  C   3.44235200000000      3.32866400000000     -2.03639800000000
  C   8.38658500000000      1.84944300000000      2.09225100000000
  H   8.55798300000000      5.26156800000000      0.67781500000000
  H   9.62267000000000      4.92733800000000     -0.71598300000000
  H   4.76670500000000      5.00451600000000     -1.60592000000000
  H   4.65245000000000      3.80618000000000     -0.28235400000000
  H   6.36702400000000      1.37330600000000      1.45467600000000
  H   7.63975400000000      1.01563900000000      0.23865700000000
  H   7.94108400000000      7.47532300000000     -0.34693600000000
  H   9.00500200000000      7.13223600000000     -1.72431800000000
  H   9.69933100000000      7.37756900000000     -0.10597200000000
  H   3.32858800000000      2.28316200000000     -1.73333900000000
  H   2.53821900000000      3.87127100000000     -1.73897100000000
  H   3.53074800000000      3.38532100000000     -3.12547300000000
  H   9.31050500000000      2.24341300000000      1.65713000000000
  H   8.03975200000000      2.52579900000000      2.87851600000000
  H   8.60586600000000      0.87762700000000      2.54699300000000
  O   7.57479700000000      4.99659800000000     -1.14489000000000
  O   5.82237900000000      3.24215300000000     -1.93936700000000
  O   7.07552800000000      3.03616800000000      0.45178700000000
  O   8.42379000000000      2.43489800000000     -1.87836000000000
  P   7.31933500000000      3.32395000000000     -1.19261200000000
  C   0.30325700000000      1.21206600000000     -3.84212900000000
  C   5.44817800000000      0.56455900000000     -3.37609000000000
  C   2.63833900000000     -0.53898200000000     -6.80335000000000
  C   0.27583500000000      2.70665900000000     -3.63850600000000
  C   6.10767400000000      0.06875600000000     -2.11566700000000
  C   2.93506200000000     -1.93518700000000     -7.29867300000000
  H   -0.48722700000000      0.68360000000000     -3.31424300000000
  H   0.25812800000000      0.93527800000000     -4.89651100000000
  H   5.46240500000000      1.65403600000000     -3.42943800000000
  H   5.88197200000000      0.12697600000000     -4.28000900000000
  H   3.45241300000000      0.16118400000000     -7.01372800000000
  H   1.71085000000000     -0.13172800000000     -7.21445000000000
  H   -0.70464000000000      3.08649700000000     -3.94044100000000
  H   0.43982900000000      2.93533300000000     -2.58345000000000
  H   1.05717300000000      3.18881700000000     -4.23292300000000
  H   6.06186300000000     -1.02173000000000     -2.04758900000000
  H   7.15350400000000      0.39337400000000     -2.11445400000000
  H   5.60015800000000      0.49436700000000     -1.24554700000000
  H   3.05465100000000     -1.92929000000000     -8.38686000000000
  H   2.11757400000000     -2.61635600000000     -7.04555300000000
  H   3.85291300000000     -2.31927300000000     -6.84623800000000
  O   1.55983300000000      0.64408400000000     -3.28064800000000
  O   4.03418600000000      0.10661100000000     -3.28831000000000
  O   2.44848600000000     -0.63987000000000     -5.34193800000000
  O   3.17123700000000      1.97940600000000     -5.15106500000000
  P   2.87656500000000      0.65645500000000     -4.34098800000000
  C   5.51488600000000      1.63296400000000      4.72684400000000
  C   5.70313900000000      5.06283900000000      2.36799600000000
  C   1.97346400000000      2.92235000000000      1.18489500000000
  C   5.94882600000000      0.19305100000000      4.59239400000000
  C   5.78074000000000      6.24760000000000      1.43546700000000
  C   0.98659400000000      3.59149500000000      2.12428300000000
  H   6.28666100000000      2.25825100000000      5.18467100000000
  H   4.58646900000000      1.73159200000000      5.29338900000000
  H   5.52145900000000      5.37325500000000      3.40336000000000
  H   6.59692500000000      4.43945300000000      2.30658200000000
  H   1.51155900000000      2.13691700000000      0.58439300000000
  H   2.46496000000000      3.64264200000000      0.52760600000000
  H   6.17627800000000     -0.21556000000000      5.58311700000000
  H   5.15682700000000     -0.39985900000000      4.13463400000000
  H   6.84467100000000      0.11584300000000      3.97035600000000
  H   4.83770700000000      6.80090600000000      1.43984500000000
  H   6.58069300000000      6.92306400000000      1.75986000000000
  H   6.00228400000000      5.91825600000000      0.41696800000000
  H   0.09164200000000      3.89015700000000      1.56759100000000
  H   0.68973100000000      2.90274600000000      2.91943100000000
  H   1.41161500000000      4.47469800000000      2.60695500000000
  O   5.31191500000000      2.18091100000000      3.36742900000000
  O   4.56897800000000      4.23967300000000      1.92119500000000
  O   3.02790200000000      2.20945800000000      1.93328400000000
  O   3.24213100000000      3.72896500000000      4.28360700000000
  P   3.95811300000000      3.10632800000000      3.02353700000000
  C   -2.80015700000000     -1.63499600000000      0.64038900000000
  C   1.71517000000000     -3.05717100000000     -1.63764600000000
  C   0.56161200000000     -3.31168100000000      1.78992500000000
  C   -2.90822600000000     -2.63465300000000      1.77273100000000
  C   2.78429800000000     -2.44778400000000     -2.49664700000000
  C   0.42600700000000     -4.43631300000000      2.78441700000000
  H   -3.17527700000000     -0.64793900000000      0.90295200000000
  H   -3.28899000000000     -1.97790700000000     -0.27395200000000
  H   1.10874400000000     -3.78565700000000     -2.18490900000000
  H   2.11986000000000     -3.50734600000000     -0.73261800000000
  H   1.60078900000000     -3.10859100000000      1.53028600000000
  H   0.10000900000000     -2.38602400000000      2.14342700000000
  H   -2.53739900000000     -3.61982800000000      1.47545700000000
  H   -2.34190300000000     -2.29722900000000      2.64653700000000
  H   -3.95759400000000     -2.74095700000000      2.06631100000000
  H   3.31090100000000     -1.64539600000000     -1.97881000000000
  H   2.38435600000000     -2.06474800000000     -3.43742200000000
  H   3.52584800000000     -3.21749900000000     -2.73735300000000
  H   0.84164100000000     -5.36208800000000      2.37859300000000
  H   0.97478800000000     -4.17007000000000      3.69255900000000
  H   -0.62281800000000     -4.60828700000000      3.04094000000000
  O   -1.36279700000000     -1.37962200000000      0.30815900000000
  O   0.78097400000000     -1.96007700000000     -1.18840800000000
  O   -0.13782200000000     -3.75119800000000      0.55340100000000
  O   -1.60245000000000     -3.27819300000000     -1.68091800000000
  P   -0.66963100000000     -2.63414000000000     -0.58809000000000
  F   2.55710800000000     -1.91658600000000      3.79293100000000
  F   3.34714900000000     -2.05140300000000      0.57466900000000
  N   1.71233500000000     -0.28417700000000      1.79254100000000
  O   0.29952700000000     -0.47657600000000      4.01738700000000
  O   2.78110700000000      0.67365200000000      4.31681800000000
  O   4.62251900000000     -0.12792600000000      1.78655900000000
  O   3.04419200000000      0.33639400000000     -0.44360800000000
  S   1.81583300000000     -0.32590600000000      3.53929200000000
  S   3.25909600000000     -0.31811200000000      0.99934900000000
