117
Coordinates from ORCA-job frame4
  Li  0.89548312962950      1.16487022187359     -0.92693768869702
  C   -3.84297894239570      0.91764133756495      0.94723103935114
  C   -4.02475047145610      1.74295747954997     -2.85520787156250
  C   -2.55159380370853      4.98679132173436     -0.75633896037448
  C   -5.18303958610496      1.15323424654217      1.58869135611363
  C   -4.05965033889824      0.97679057264542     -4.15188159479119
  C   -4.04212709758488      5.21188587569163     -0.77069948638685
  H   -3.06232120711944      0.64874336117461      1.65876890524737
  H   -3.89526918769672      0.16094146611960      0.16217750831841
  H   -4.87801502326389      1.51272090187392     -2.21828235660481
  H   -3.96318191094006      2.81913949515523     -3.01187146539577
  H   -2.14161778550788      4.94160668864957      0.24707110088994
  H   -2.00445220062387      5.71956743830520     -1.34099514551373
  H   -5.91272697688480      1.46688849093974      0.84374501169935
  H   -5.53490050195706      0.22761746178389      2.04525210898120
  H   -5.12288894218732      1.90882287693142      2.36786500541156
  H   -3.99165598761273     -0.09333632409900     -3.96162786946938
  H   -4.99668560536004      1.17735408343467     -4.67427824920104
  H   -3.23800911725297      1.27242640277709     -4.80273741213874
  H   -4.26847846749494      6.16894730230614     -0.29914703560486
  H   -4.42189301594649      5.23518076864959     -1.79275221301896
  H   -4.55733554744934      4.43438296806546     -0.20861186387041
  O   -3.42502679896642      2.19991560258790      0.31752973322384
  O   -2.80427868154238      1.31327758335017     -2.14095053306030
  O   -2.23337651804954      3.71365571562746     -1.45392804054827
  O   -0.89831159548329      1.58112398959960     -0.34357484562500
  P   -2.24281797889262      2.19688585910537     -0.85290060763207
  C   -1.81813749200469     -1.52889522942893     -0.83929186393941
  C   2.31338576998401     -1.88958308452443     -0.20441275823637
  C   -0.29650439982109      0.63786848472829     -3.89198363557834
  C   -2.53532889036298     -2.67484968447259     -0.17791825295106
  C   3.30719052134977     -1.14726641817483      0.64596084207476
  C   -0.09359112452419      2.12610114937769     -3.97373906604777
  H   -1.29426611962203     -0.90856194425228     -0.11439091532519
  H   -2.46720213360392     -0.91071455722939     -1.45451616437537
  H   1.71633623099524     -2.59492980414019      0.37192158220496
  H   2.80174138418648     -2.40130512526377     -1.03339377286306
  H   0.28621874048514      0.11655495359904     -4.64621913719821
  H   -1.34432501646324      0.35212343723889     -3.94480980194439
  H   -1.84818367693758     -3.24512150243237      0.44460532161974
  H   -3.33911714681886     -2.29732022513636      0.45674206333323
  H   -2.96631503843962     -3.33703417845007     -0.92829756991337
  H   3.70348304098082     -0.28780938792995      0.10815018181645
  H   2.84770678879018     -0.84224134984517      1.58440768098599
  H   4.14122095289587     -1.80313760239110      0.89827617354035
  H   -0.72431000010235      2.65579434494225     -3.26103712081561
  H   0.94863008903973      2.37156510969649     -3.77750036798260
  H   -0.34815248155625      2.47174083472514     -4.97734296287270
  O   -0.82343787729200     -2.13382356379329     -1.75442562702527
  O   1.37150904740742     -0.90567454723875     -0.79061145731145
  O   0.19204916467761      0.21249775204769     -2.56645085279772
  O   1.39695515430190     -2.18985140321428     -3.21280581976497
  P   0.56426706121435     -1.35987321320784     -2.19528184663312
  C   3.87456976982476     -0.18328147037186     -3.95144382210053
  C   1.49169605666667     -1.10091556528051     -7.13091153831115
  C   4.02059445073497     -1.52537835800699     -4.61606834571264
  C   2.22263988199681     -1.99710639282195     -6.17923953347088
  F   2.59572127125145      0.33401871429317     -4.07187179768755
  F   4.13804389279042     -0.30499570500867     -2.58173212264414
  F   4.74242383084534      0.76597864625873     -4.44610421946920
  F   0.19119074528386     -1.58214573573921     -7.30406846826377
  F   1.36941570334367      0.20423531812821     -6.67548549340765
  F   2.07099874853045     -1.04056875943146     -8.38173872351073
  H   5.07780257084335     -1.77538425479988     -4.64649696720027
  H   3.46952945040599     -2.24871063612483     -4.01734884854964
  H   2.28345355292994     -2.98431636877133     -6.63814735660928
  H   1.65854831449474     -2.06134981054282     -5.24706819544732
  O   3.54503994511898     -1.47297764779208     -5.96658777694940
  C   -4.19244471216321      0.88121833939855      5.67941389183138
  C   -3.88879208799908      4.77717616014977      3.08232927429718
  C   -3.20745528836763      1.63605537040603      4.83995317284718
  C   -3.09257845721041      3.54767203063319      3.39371593543705
  F   -4.74673000867913      1.64656636581161      6.68401923787334
  F   -3.55168470978225     -0.19322148209778      6.28390751723772
  F   -5.23840823458883      0.36432732650010      4.93024978738905
  F   -3.14074896047525      5.62195303364709      2.26160830892398
  F   -4.23129471133288      5.50206636834160      4.20314803866207
  F   -5.05966140022080      4.49120584210299      2.39764442975803
  H   -2.39438965362561      1.97969728466763      5.48230754321641
  H   -2.79692890914049      0.96212751595151      4.08946120844196
  H   -2.16647143755260      3.85070276683189      3.88661187991669
  H   -2.86011585655081      3.04867996766950      2.45345925880696
  O   -3.90678889922120      2.73250661673933      4.24331722288146
  C   -6.16217464272221     -1.34381014777517     -1.33685654577943
  C   -10.48287067360152     -3.13576181736442     -1.64730862916268
  C   -6.91357749931487     -2.40980680449227     -2.07324994366486
  C   -9.08679573529793     -3.42011571316249     -2.11585368555791
  F   -6.03814309135590     -1.60376189306637      0.01231494989305
  F   -4.86393232369032     -1.25589230098912     -1.85201950843952
  F   -6.72287458152538     -0.08929722623306     -1.47294046332805
  F   -11.33459186389168     -4.11007767141607     -2.15600246763926
  F   -10.94262828063186     -1.91167207694573     -2.09015235777249
  F   -10.59354883697470     -3.15913403127840     -0.27385817407627
  H   -6.89291901202870     -2.16869065314505     -3.13918184621770
  H   -6.40327095119252     -3.36149741826787     -1.90453487072916
  H   -8.80160853851452     -4.41747514980010     -1.77536794162278
  H   -9.08359981523829     -3.38739742865141     -3.20787917610343
  O   -8.24068938976523     -2.41116688499801     -1.55501304837161
  F   1.16169483215522      3.13935057321033      3.12028902172323
  F   -0.64829782159814     -0.45647932932094      4.43120801875771
  N   -0.87347894361114      1.38876921420819      2.61922082115760
  O   1.34876212158439      1.88005105858737      0.94413694357134
  O   -0.70499068394592      3.79656876449337      1.35201087996005
  O   -0.31378859231070     -1.29278190298512      1.92722942811148
  O   1.63965189438452      0.13560430407375      3.20050748119107
  S   0.13562689466953      2.53409670907362      1.77448089350241
  S   0.09695058818963     -0.09910452877549      2.86979278624316
  F   2.62743633743578      4.35324139502784     -0.20418557150846
  F   6.63442743464059      1.55713461035199      0.54949940069833
  N   3.94929339973942      2.07365915762571      0.40130278967059
  O   2.38980227185915      2.17699103110167     -1.73340492528610
  O   4.69832126961630      3.67164651167560     -1.78176720664069
  O   5.88444889694324      3.95652311687604      1.44331237806031
  O   4.91520239627553      1.62669407221956      2.63976787124065
  S   3.51992626728827      3.00180399369658     -0.97742131731394
  S   5.34628954417482      2.47991246539622      1.34197020604969
  Li  2.89884188209491      1.31974608713810      2.05188092945677
