126
Coordinates from ORCA-job frame6
  Li  -0.22591600000000     -1.40157300000000      0.07377800000000
  C   5.00809900000000      1.37026700000000      2.91697000000000
  C   3.94070600000000      0.58609400000000      6.29684800000000
  C   4.46175700000000      0.32646900000000      1.94643300000000
  C   4.41148600000000      1.93317700000000      6.81077300000000
  C   3.74693700000000      0.52746700000000      4.80833800000000
  F   4.28702800000000      2.55286400000000      2.72383600000000
  F   6.32984100000000      1.63342800000000      2.59113000000000
  F   2.72779000000000      0.24581300000000      6.89574600000000
  F   4.89134800000000     -0.35715500000000      6.70453700000000
  F   4.90485600000000     -0.91709300000000      2.38912600000000
  F   3.06193900000000      0.36663400000000      2.05430900000000
  F   4.37254900000000      1.94029300000000      8.20169500000000
  F   3.52425200000000      2.90588400000000      6.33746600000000
  H   4.72346800000000      0.48062900000000      0.90558500000000
  H   5.41663400000000      2.16890600000000      6.47281100000000
  H   2.91304300000000      1.16915300000000      4.52460100000000
  H   3.56093100000000     -0.49966700000000      4.49618100000000
  O   4.99923800000000      1.01555100000000      4.24128000000000
  C   -0.44302700000000     -6.48990700000000     -0.07901400000000
  C   -3.40188700000000     -7.11013700000000      1.96204400000000
  C   -0.27811100000000     -5.44892600000000     -1.16398200000000
  C   -3.92433600000000     -8.13289600000000      2.95838100000000
  C   -1.96527100000000     -7.29294500000000      1.57201000000000
  F   -0.24082800000000     -7.78114300000000     -0.56793800000000
  F   0.55609500000000     -6.30395100000000      0.89083000000000
  F   -4.25116400000000     -7.10538400000000      0.87016000000000
  F   -3.60391200000000     -5.84569800000000      2.60949100000000
  F   -1.15559000000000     -5.75027600000000     -2.19876600000000
  F   1.02981300000000     -5.54509900000000     -1.65040500000000
  F   -3.13559300000000     -8.05435100000000      4.10738400000000
  F   -3.76474500000000     -9.39752800000000      2.40079800000000
  H   -0.46302700000000     -4.43960700000000     -0.80966900000000
  H   -4.96871700000000     -7.96954500000000      3.21558400000000
  H   -1.82226900000000     -8.32306600000000      1.23862100000000
  H   -1.32198900000000     -7.06404500000000      2.42282700000000
  O   -1.68925500000000     -6.37611000000000      0.48540500000000
  C   6.27934000000000      2.89992400000000     -1.93223400000000
  C   5.41838800000000      1.12871700000000     -4.69225600000000
  C   6.45336000000000      2.49087100000000     -0.47837900000000
  C   5.87472600000000     -0.05144500000000     -5.52984000000000
  C   5.57071500000000      0.95195200000000     -3.20661000000000
  F   5.99254400000000      4.24950700000000     -1.97068100000000
  F   7.52648400000000      2.71110400000000     -2.54636100000000
  F   6.14792300000000      2.23497800000000     -5.13656500000000
  F   4.07472400000000      1.35827200000000     -5.02419000000000
  F   5.28790700000000      2.80346700000000      0.21370500000000
  F   6.61779800000000      1.10000700000000     -0.44910000000000
  F   7.21325200000000     -0.31089400000000     -5.23447600000000
  F   5.13149700000000     -1.17934600000000     -5.16873300000000
  H   7.30025700000000      2.96319700000000      0.01089700000000
  H   5.76391700000000      0.12871700000000     -6.59689500000000
  H   4.83506600000000      0.23244300000000     -2.85021700000000
  H   6.58314600000000      0.62361600000000     -2.97607900000000
  O   5.27962200000000      2.23281000000000     -2.58474900000000
  C   3.41309100000000     -3.16150300000000     -0.19500000000000
  C   2.29084000000000     -1.47543300000000     -3.76117900000000
  C   2.41823600000000      1.94837200000000     -0.76827000000000
  C   4.16239800000000     -3.70060500000000      0.99754600000000
  C   1.99970400000000     -2.94266600000000     -3.54559500000000
  C   1.97113400000000      2.23770400000000     -2.18362200000000
  H   2.34595200000000     -3.39583400000000     -0.14245500000000
  H   3.82442800000000     -3.51180400000000     -1.14588800000000
  H   2.83604100000000     -1.27806100000000     -4.68090200000000
  H   1.37873700000000     -0.87655700000000     -3.72339100000000
  H   3.06174600000000      2.72239000000000     -0.35842100000000
  H   1.58247300000000      1.75487400000000     -0.09040300000000
  H   4.06864100000000     -4.79074600000000      1.02169900000000
  H   3.75022000000000     -3.29148900000000      1.92014000000000
  H   5.21981400000000     -3.43323100000000      0.94156500000000
  H   2.92401400000000     -3.52664200000000     -3.53904300000000
  H   1.46413600000000     -3.09694000000000     -2.60456900000000
  H   1.35663600000000     -3.31559300000000     -4.34756400000000
  H   1.30883300000000      1.44982100000000     -2.55447200000000
  H   2.83389900000000      2.34025900000000     -2.84446100000000
  H   1.40105400000000      3.17165600000000     -2.20497100000000
  O   3.57499900000000     -1.68579700000000     -0.15372800000000
  O   3.22358300000000     -0.97507100000000     -2.71970700000000
  O   3.30479000000000      0.75332100000000     -0.73548700000000
  O   1.08522300000000     -0.87664600000000     -1.09258200000000
  P   2.65494300000000     -0.72094300000000     -1.15684600000000
  C   -3.77572600000000     -2.35747700000000      0.73217700000000
  C   -4.79746600000000      0.71878500000000      3.06181300000000
  C   -2.45527600000000     -2.43631900000000      5.73328300000000
  C   -3.93613000000000     -3.72082100000000      0.11100200000000
  C   -4.34870100000000      1.22277700000000      1.70977400000000
  C   -1.97803100000000     -3.79375100000000      6.18699000000000
  H   -3.15833900000000     -1.69465300000000      0.13471700000000
  H   -4.72967700000000     -1.88035100000000      0.96543500000000
  H   -4.23003600000000      1.17340000000000      3.87728400000000
  H   -5.86584800000000      0.83923700000000      3.23537900000000
  H   -1.62947400000000     -1.73217800000000      5.60292500000000
  H   -3.21826600000000     -2.01270000000000      6.38934400000000
  H   -4.63749800000000     -4.33871800000000      0.67651600000000
  H   -2.97446000000000     -4.23530000000000      0.04739000000000
  H   -4.32088400000000     -3.61728700000000     -0.90886800000000
  H   -4.90302100000000      0.74047500000000      0.90002100000000
  H   -3.27650100000000      1.06174700000000      1.56036000000000
  H   -4.52936200000000      2.29916900000000      1.63297500000000
  H   -1.52428400000000     -3.71541200000000      7.17925200000000
  H   -1.22174400000000     -4.17896100000000      5.49720500000000
  H   -2.81164400000000     -4.50068000000000      6.24880100000000
  O   -3.04870200000000     -2.54899500000000      2.01833100000000
  O   -4.62906000000000     -0.76561600000000      3.15569000000000
  O   -3.09263200000000     -2.63981700000000      4.40675300000000
  O   -1.96014400000000     -0.30115200000000      3.44581900000000
  P   -3.07910900000000     -1.38966700000000      3.25705500000000
  F   1.54754900000000     -4.51577500000000      2.94471900000000
  F   2.17392300000000     -1.82509800000000      3.15187300000000
  N   -0.31164200000000     -2.46207100000000      3.58845200000000
  O   -1.03566000000000     -4.84815700000000      2.86973100000000
  O   0.25944300000000     -3.33742600000000      0.95421700000000
  O   0.71508100000000     -0.04159600000000      4.48405400000000
  O   0.40870400000000     -0.41790200000000      1.74024300000000
  S   0.06393600000000     -3.73865300000000      2.49528700000000
  S   0.61025400000000     -0.97724000000000      3.21391100000000
  F   -0.84006400000000     -1.83792100000000     -3.70141700000000
  F   -1.01931100000000      1.07568900000000     -2.35468200000000
  N   -3.07284400000000     -0.79111900000000     -2.39711700000000
  O   -2.96856900000000     -3.36728700000000     -3.19718200000000
  O   -1.23438300000000     -2.62862100000000     -1.21019900000000
  O   -1.67964700000000      0.01042000000000     -0.02596900000000
  O   -3.43021000000000      1.66279100000000     -1.32524000000000
  S   -2.07769400000000     -2.23895000000000     -2.52495500000000
  S   -2.36502100000000      0.48687300000000     -1.40208000000000
  Li  -2.80622300000000     -4.15095000000000      3.11210200000000
