62
Coordinates from ORCA-job frame4
  Li  -0.48672800000000     -0.02606700000000      0.05127300000000
  C   -2.02206600000000      1.33192100000000     -5.41537700000000
  C   -3.93790800000000      0.99695000000000     -1.34212200000000
  C   -0.11982300000000      3.16581100000000     -1.84006300000000
  C   -2.01844600000000      0.45780600000000     -6.64675500000000
  C   -4.76182100000000      2.06813000000000     -0.67121600000000
  C   0.49708100000000      4.44498800000000     -2.34237300000000
  H   -1.25289900000000      2.10676000000000     -5.44658400000000
  H   -2.99716500000000      1.79244300000000     -5.23126700000000
  H   -3.32320900000000      0.45215700000000     -0.62245700000000
  H   -4.54333700000000      0.29765600000000     -1.92532400000000
  H   0.62960400000000      2.51771300000000     -1.38004200000000
  H   -0.94686300000000      3.35434800000000     -1.14908100000000
  H   -1.03981500000000     -0.01038300000000     -6.77680500000000
  H   -2.24020100000000      1.06118800000000     -7.53278600000000
  H   -2.77144300000000     -0.32916400000000     -6.55983900000000
  H   -5.32967900000000      2.63916300000000     -1.41031300000000
  H   -4.10958000000000      2.75157100000000     -0.12379400000000
  H   -5.46351500000000      1.61154500000000      0.03412000000000
  H   0.95995900000000      4.97010600000000     -1.50172100000000
  H   1.27046000000000      4.22840300000000     -3.08326600000000
  H   -0.26077900000000      5.08916000000000     -2.79443600000000
  O   -1.71792900000000      0.42886500000000     -4.28189400000000
  O   -3.04714500000000      1.70223400000000     -2.29218500000000
  O   -0.64651000000000      2.43938200000000     -3.01887700000000
  O   -0.97287200000000      0.00173300000000     -1.72621400000000
  P   -1.55906600000000      1.05773300000000     -2.74066300000000
  C   -0.65043100000000     -3.24871100000000      4.03080600000000
  C   2.82892000000000     -1.25619300000000      2.14696200000000
  C   -0.26871100000000      0.96842400000000      4.71783300000000
  C   -1.45315100000000     -3.68180500000000      5.23346000000000
  C   3.88783100000000     -2.26259700000000      2.52728600000000
  C   0.48777600000000      2.23793400000000      5.01638400000000
  H   0.38563200000000     -3.59705200000000      4.07190500000000
  H   -1.10743300000000     -3.56475700000000      3.08847700000000
  H   2.41141200000000     -1.43628900000000      1.15302300000000
  H   3.17987700000000     -0.22629600000000      2.20873700000000
  H   0.08554300000000      0.12020200000000      5.30565900000000
  H   -1.34462800000000      1.08349900000000      4.84151300000000
  H   -1.50223800000000     -4.77427600000000      5.27705100000000
  H   -0.98987600000000     -3.31527900000000      6.15286000000000
  H   -2.47035200000000     -3.28721000000000      5.17408900000000
  H   4.23388200000000     -2.08492900000000      3.54858500000000
  H   4.74309000000000     -2.17380900000000      1.84996400000000
  H   3.49486900000000     -3.28064300000000      2.46256300000000
  H   0.15416400000000      3.05333800000000      4.37189000000000
  H   0.29236400000000      2.52435100000000      6.05554600000000
  H   1.56119600000000      2.10130600000000      4.88041800000000
  O   -0.63337200000000     -1.77244300000000      4.06154800000000
  O   1.74618500000000     -1.40764500000000      3.14836700000000
  O   -0.08051300000000      0.63380900000000      3.26439900000000
  O   -0.34057200000000     -1.35517600000000      1.37152100000000
  P   0.16023900000000     -0.96799400000000      2.81970700000000
  F   -2.19966400000000      3.89114600000000      0.93391400000000
  F   2.42577600000000      1.99070700000000      2.66002300000000
  N   0.16222000000000      3.37434500000000      1.74831400000000
  O   -2.17670600000000      2.60198100000000      3.21020000000000
  O   -1.69663300000000      1.35972700000000      0.79817800000000
  O   1.17931400000000      0.87510900000000      0.67797000000000
  O   2.46001000000000      3.27329800000000      0.35239500000000
  S   -1.43243300000000      2.57367100000000      1.81010600000000
  S   1.48810600000000      2.35810400000000      1.21841100000000
